DEBUG: __name__ = '__m5_main__'
DEBUG: Entering __m5_main__ block
DEBUG: main() called
DEBUG: Parser created
DEBUG: About to parse args
DEBUG: Args parsed successfully: cmd=/LMUL-Hardware-Acceleration/workspace/gem5-sim/benchmarks/matrix_multiply/matrix_multiply_no_printf.arm, pe_rows=4, pe_cols=4
DEBUG: Using run output directory: /LMUL-Hardware-Acceleration/workspace/gem5-sim/lmul_vs_ieee_comparison/ieee
DEBUG: About to create system
gem5 Simulator System.  https://www.gem5.org
gem5 is copyrighted software; use the --copyright option for details.

gem5 version 25.1.0.0
gem5 compiled Feb 13 2026 18:37:34
gem5 started Feb 13 2026 19:23:09
gem5 executing on exp-3-55, pid 1491328
command line: /LMUL-Hardware-Acceleration/workspace/gem5/build/ARM/gem5.opt --outdir=lmul_vs_ieee_comparison/ieee /LMUL-Hardware-Acceleration/workspace/gem5-sim/configs/lmul_system.py --output-dir=lmul_vs_ieee_comparison/ieee --pe-rows=4 --pe-cols=4 --cmd=/LMUL-Hardware-Acceleration/workspace/gem5-sim/benchmarks/matrix_multiply/matrix_multiply_no_printf.arm --cmd-args 64 64 64 0 result.bin

info: Standard input is not a terminal, disabling listeners.
Creating system...
warn: Base 10 memory/cache size 512MB will be cast to base 2 size 512MiB.
Global frequency set at 1000000000000 ticks per second
warn: No dot file generated. Please install pydot to generate the dot file and pdf.
src/mem/dram_interface.cc:690: warn: DRAM device capacity (8192 Mbytes) does not match the address range assigned (512 Mbytes)
src/base/statistics.hh:279: warn: One of the stats is a legacy stat. Legacy stat is a stat that does not belong to any statistics::Group. Legacy stat is deprecated.
src/base/remote_gdb.cc:418: warn: Sockets disabled, not accepting gdb connections
DEBUG: Mapped accelerator MMIO region 0x40000000 (size 0x1000)
System created
Creating root object...
Instantiating configuration...
Configuration instantiated successfully
Starting simulation with 4x4 PE array (LMUL Accelerator)
Running: /LMUL-Hardware-Acceleration/workspace/gem5-sim/benchmarks/matrix_multiply/matrix_multiply_no_printf.arm 64 64 64 0 result.bin
Beginning simulation...
src/sim/syscall_emul.cc:86: warn: ignoring syscall set_robust_list(...)
src/sim/syscall_emul.cc:86: warn: ignoring syscall sys_rseq(...)
src/sim/mem_state.cc:443: info: Increasing stack size by one page.
src/sim/syscall_emul.hh:1127: warn: readlink() called on '/proc/self/exe' may yield unexpected results in various settings.
      Returning '/LMUL-Hardware-Acceleration/workspace/gem5-sim/benchmarks/matrix_multiply/matrix_multiply_no_printf.arm'
src/sim/syscall_emul.cc:86: warn: ignoring syscall mprotect(...)
RESULT_WRITE_OK
COMPLETE mode=cpu
Simulation complete: exiting with last active thread context
Exit code: 0
Dumping statistics...
Statistics dumped successfully
Output directory: /LMUL-Hardware-Acceleration/workspace/gem5-sim/lmul_vs_ieee_comparison/ieee
Stats file should be at: /LMUL-Hardware-Acceleration/workspace/gem5-sim/lmul_vs_ieee_comparison/ieee/stats.txt
Stats file exists: /LMUL-Hardware-Acceleration/workspace/gem5-sim/lmul_vs_ieee_comparison/ieee/stats.txt (93470 bytes)
