DEBUG: __name__ = '__m5_main__'
DEBUG: Entering __m5_main__ block
DEBUG: main() called
DEBUG: Parser created
DEBUG: About to parse args
DEBUG: Args parsed successfully: cmd=/workspace/LMUL-Hardware-Acceleration/gem5-sim/benchmarks/matrix_multiply/matrix_multiply_no_printf.arm, pe_rows=4, pe_cols=4
DEBUG: Using run output directory: /workspace/LMUL-Hardware-Acceleration/gem5-sim/lmul_vs_ieee_comparison/lmul
DEBUG: About to create system
gem5 Simulator System.  https://www.gem5.org
gem5 is copyrighted software; use the --copyright option for details.

gem5 version 25.1.0.0
gem5 compiled Feb 13 2026 18:37:34
gem5 started Feb 18 2026 12:21:29
gem5 executing on exp-3-44, pid 3125221
command line: /workspace/LMUL-Hardware-Acceleration/gem5/build/ARM/gem5.opt --outdir=lmul_vs_ieee_comparison/lmul /workspace/LMUL-Hardware-Acceleration/gem5-sim/configs/lmul_system.py --output-dir=lmul_vs_ieee_comparison/lmul --pe-rows=4 --pe-cols=4 --cmd=/workspace/LMUL-Hardware-Acceleration/gem5-sim/benchmarks/matrix_multiply/matrix_multiply_no_printf.arm --cmd-args 4 4 4 1 result.bin inputs.bin

Creating system...
ERROR in main(): Invalid assignment for Class LMulAccelerator with parameter dma
Traceback (most recent call last):
  File "/workspace/LMUL-Hardware-Acceleration/gem5-sim/configs/lmul_system.py", line 256, in <module>
    main()
  File "/workspace/LMUL-Hardware-Acceleration/gem5-sim/configs/lmul_system.py", line 152, in main
    system = createSystem(args)
  File "/workspace/LMUL-Hardware-Acceleration/gem5-sim/configs/lmul_system.py", line 75, in createSystem
    system = LMulSystem(
  File "/workspace/LMUL-Hardware-Acceleration/gem5-sim/configs/lmul_system.py", line 50, in __init__
    self.lmul_accel.dma = self.membus.cpu_side_ports
  File "src/python/m5/SimObject.py", line 934, in __setattr__
AttributeError: Invalid assignment for Class LMulAccelerator with parameter dma
